Version 4
SHEET 1 880 680
WIRE 112 16 0 16
WIRE 304 16 208 16
WIRE 0 112 0 16
WIRE 304 112 304 16
WIRE 0 288 0 192
WIRE 192 288 192 64
WIRE 192 288 0 288
WIRE 304 288 304 192
WIRE 304 288 192 288
WIRE 192 320 192 288
FLAG 192 320 0
SYMBOL voltage 0 96 R0
WINDOW 123 0 0 Left 0
WINDOW 39 0 0 Left 0
SYMATTR InstName V1
SYMATTR Value SINE(0 12 1 0 0 0 5)
SYMBOL res 288 96 R0
SYMATTR InstName R1
SYMATTR Value 100
SYMBOL pmos 112 64 R270
SYMATTR InstName M1
TEXT -34 298 Left 2 !.tran 0 5 0
