Version 4
SHEET 1 880 680
WIRE 160 96 64 96
WIRE 288 96 224 96
WIRE 64 144 64 96
WIRE 288 144 288 96
WIRE 64 256 64 224
WIRE 176 256 64 256
WIRE 288 256 288 224
WIRE 288 256 176 256
WIRE 176 288 176 256
FLAG 176 288 0
SYMBOL voltage 64 128 R0
WINDOW 123 0 0 Left 0
WINDOW 39 0 0 Left 0
SYMATTR InstName V1
SYMATTR Value SINE(0 12 1 0 0 0 5)
SYMBOL res 272 128 R0
SYMATTR InstName R1
SYMATTR Value 10
SYMBOL schottky 160 112 R270
WINDOW 0 32 32 VTop 2
WINDOW 3 0 32 VBottom 2
SYMATTR InstName D1
TEXT 30 312 Left 2 !.tran 5
